===== PAGE 1 =====
Application Note

            AN_411

 FTx232H MPSSE I2C Master Example

                  in C#

                                      Version 1.1

                               Issue Date: 2018-10-04

           This application note shows an example of using the MPSSE feature of the
         FT232H, FT2232H and FT4232H devices to create a USB to I2C Master Device
           with a C# Visual Studio project.

 Use of FTDI devices in life support and/or safety applications is entirely at the user’s risk, and the user
agrees to defend, indemnify and hold FTDI harmless from any and all damages, claims, suits or expense
                                          resulting from such use.

                 Future Technology Devices International Limited (FTDI)
                      Unit 1, 2 Seaward Place, Glasgow G41 1HH, United Kingdom
                         Tel.: +44 (0) 141 429 2777  Fax: + 44 (0) 141 429 2758
                          Web Site: http://ftdichip.com
                    Copyright © Future Technology Devices International Limited

===== PAGE 2 =====
t            FTDI                                                                   Application Note

Chip                   AN_411 FTx232H MPSSE I2C Master Example in C#

Version 1.1

—=—

Document Reference No.: FT_001330 Clearance No.: FTDI#528

Table of Contents
L TMtrOCuctiOn. ....cceccceccnsecneeeneeneeeeeeeeeeeuseeuseueenneenuseueenusenussees &

2  Hardware BEB RBBB RRR RRR BRR RRR RRR RRR RRR RRR RR RRR RRR RRR RRR RRR RRR RRR Ree Re Ree eee eee eee 5
2.1 Comparison of FT232H, FT2232H, FT4232H MPSSE Features....5

2.2 Hardware DeSCriptioOn ....cccscccccccescceeseeeeeceeeeseeseeeesneeseseesasenseeenanes 6
2.2.1     FTDI MOUle 2.0... ..ccece eee eee eee ene ene 6
2.2.2    POWET EEE eee 7
2.2.3    Proximity Sensor (VCNL4010) ....... cc cccccccce cece eee eeeeeeeeeaeeeaeesaeeeaeeeaeeeaneeaneeanees 7
2.2.4    Colour Sensor (TCS34725) ..cccceccccceccceeceeeceeeeeeeeeeeeee esas sees eeaeesaeegaeeeaeeganeeaeeags 7
2.2.5    GPT. rR RN I I I I nee eed 7
2.2.6 i Oe ee eee errr ree 7
2.2.7    EEPROM SettingS .......ccecccec eee n eer een EEE EERE EEE 8

2.3 Prototype Hardware......cccsscceecccescceesceeesceeenseeseeeesneeeeseeeaeenseeeanes 8

3S SOFTWALE oo. cece eeee sees ee eee eee eee e eee eee eeeeeeeeeeeeeeeeeeeeeeeeeeeeees OD

3.1 Sample COde PpackaGe......scsscceescceeeceeenceesceeeeceeeeseeeasenseeeeseeeeseneas 9

4 Software - Application Code .....cccssssccsseseesnseessesessaseessases LO

4.1 FOrim1 _LOAd.... csc cc cceee senses eeneeeeeeeeeeeeeeeeeeseeeeeesaneeessaeeeessaneenesanees 10

4.2 Button1_Click (Initialise DUttON) ........ccccceeeseeeeeeeeeeseeeeeeeseeeeenee 10

4.3 Button2_Click (Start DUttON) ......ccccceeeeeeeeeeeseeeeeseeeeseeeeseneeeeeenee 11

4.4 Button3_Click (Stop DUttON) ......ccccceeeeeeeeeeeseeeeeseeeeseeeesenseeeeenee 11

5 Software - Sensor Interface Functions. ........::scseseeees 12

5.1 Proximity SCNSOFP......cccccscceecseescceeseeeeeeeeeseesaeeesaeeesneeeasensusensanens 12
5.1.1    Configuration (ProximitySeEnSoOrConfig()) .....cccccceeeeeeeeeeeeeeeeaeeaeeaeeaeeaeeaeeaeeas 12
5.1.2    Reading (ProximitySensorReading()) ...cccccececcesceseeee esses eases eases eae eae eae eae enna 13

5.2 Colour SCMSOM ....cccsceeeeeeeeeeee seen eee eeeeeeeeeeeeeeeeeeeeeeeeeeeeeeeeeeeeeeeeeeees 15
5.2.1    Configuration (ColourSensSoOrConfig()).....ccccccceceeceeeeeeeeeeeeeeeeeaeeaeeaeeaeeaeeaeeaeeas 15
5.2.2    Reading (ColourSensSorReading())...cccccceccecceseeee scence eee eee eee eens nena e eae eee EES 15

6 Software - I7C FUNCTIONS .......cccceceeeeeeneeeeeseseseseeesesesesesess LZ

6.1 MPSSE Commands... ...cccccceseeeeeeeeeeeeeeeeeeeeeeeeeeeeeeeeeeeeeeeeeeeeeeeeeeees 17

6.2 Function DeSCriptiONns ....ccccccceecsceeseseeseeeeseeeeeeeeseneeseeeesneeeusensanens 18
6.2.1    T2C_COnfIQUPEMPSSE 2... cece EE EEE EERE EEE SESE EEE EEE EEE EEE 18
6.2.2    1S Tal ©) a> 1X =k ©) | 00] Gn 18
6.2.3    CIOCK rate... eee renee teense eee e eee 19

Product Page
Document Feedback                                              Copyright © Future Technology Devices International Limited

===== PAGE 3 =====
t            FTDI                                                                   Application Note

Chip                   AN_411 FTx232H MPSSE I2C Master Example in C#

Version 1.1

—=—

Document Reference No.: FT_001330 Clearance No.: FTDI#528

6.2.4    (0) 0)~1a sD) g-) 8 en 19
6.2.5    I2C_SendByteAndCheckACkK .......cccccccece cece cess eeeeeaeeeeaeeeaeeeaeeeaeeeateeaeeeaeeeaneeas 20
6.2.6    I2ZC_ SendDeviceAddrAndChnecKACK .....ccccccceeccccceeeeeueeuucueueeeueeuuguuueeeneeuuuuunes 21
6.2.7    | LOR 5 =1- [6] =) 21
6.2.8    I2C_Read2ByteSWithAddr.........ccccccccceseceeeeeeeeeeeeeaeeeaeeeaeeeaeeeaeeeaeeeaeeeaeeeaeegas 22
6.2.9    T2C_SetStart.... cece eee renee nena eaten tenes 23
6.2.10  I2C_SetStp 2... Een nnn nana e teens 23
6.2.11 I2C SetLineStatesIdle........ cc cccceeeccceceeeeeeeeeeecceeeeeeeeesgueeeeeeeesgguueeeneeegguungs 24
6.2.12 I2C GetGPIOVAIUCSLOW .......ccccccecee ee eseceeeeeueeeuecgeeeeeeeeeuguueeeeeveugguueeeneeegauunes 24
6.2.13. I2C_SetGPIOValuesHigh (FT232H and FT2232H Only)......cccesseseeseeseeneeeeaeeaes 24
6.2.14 I2C_GetGPIOValuesHigh (FT232H and FT2232H Only) ......cceeceseeeeeeeeneeaeeaeeaes 25

7 Software - D2xx Driver and C# Wrapper .....sscsssesessnsereas 26
7.1.1    SONd_ Data ..cccccccccccccccceeeeeeeecceeeeueeeusceeeeeueecugaueeeeueesgguuuueeeeeeeuguuueeeneuugauuees 26
7.1.2    RECEIVE _Datavicccccccccccucuuuuuuuuuuuuueuuueeeeeeeeeeeeeeeeeeeeeeeeeeeeeeeeeeeeeeeeeeeeeeeeeneennnses 26
7.1.3    FIUSHBUfFPED «2... eee nee eee ented 27
7.1.4     Multiple Channels .........cccccceeece eee e cece seen eee e eee e eee e sees sees sees eeeeeeaeeeaeeeaeeeaeeeaneaas 27

8 Further Development .......ccccesesnsseeeesncseeeeeneseeeesenseenessnses 2O
8.1 Other LANGUAGES. .....ccccceeeeeeeeeeeseeeeseeeeeseeeeeeeeeeeeneeeesensanensneeeenee 28
8.2 Clock Stretching ......cccscceccceescceesceeesceeeneeeseseeseeeeeneeeesensasensaeeeanes 28
8.3 Hardware ....cscecceeseeeeeeeee eee e eee eeeeeeeeeeeeeeeeeeeeeeeeeeeeeeeeeeeeeeeeeeeeeeeees 28

9 Using the De@M0..,.....cccccsseneceeeesneseeeeeneseeeeeesoenessnneenesansees 29
1O CONnCIUSION.....cccccccceeeeeeeeneeeseeeeeeeeesseeeseeeeeeeeesssnnnssoesssseees OL
11 Contact INfOrmatiON.........scccccsennseeesennseeessnnseesseneseeseesases OD
Appendix A - References .....ccccscceesnseessceeesnseeeseeesnsensaseessaser OO
Document ReEfEreNnCes .....cccecceeeseeeeeeeeeeseeeeseeseeeeeneeeeseeeaneeseeeeeneeeenenens 33
Acronyms and Abbreviations. ......ccccccccceescceesceeeeseesnneesceeeseeneasenseeeenes 33
Appendix B — List of Tables & FIQurres ........cccsssnneeesssnnseesseas OF
List Of Tables ......cccccccescceesseeecseeseeeeseeeeeseeeeseeseeeeeneeeeneeeaneneaneeeneeenenaas 34
List Of FIQUIFES ...ccccseceesceeeeseeecseeeeeeeeneeeeneeeeneesaeeeeneeeeneneaneneaneeeneneaenens 34
Appendix C — ReVISION HIStOFy .......ssceeesssncseeeeeneseeeeseeseesesaes OD

3

Product Page
Document Feedback                                              Copyright © Future Technology Devices International Limited

===== PAGE 4 =====
Application Note
                          AN_411 FTx232H MPSSE I2C Master Example in C#
                                                                                                                       Version 1.1

                                                        Document Reference No.: FT_001330   Clearance No.: FTDI#528

1 Introduction

This application note shows an example of using the MPSSE feature of the FT232H, FT2232H and
FT4232H devices as an I2C Master with a C# project.

It uses a proximity sensor and an RGB colour sensor as I2C peripherals and to create a system which can
detect the presence of an object in close proximity and can then determine its colour.

                         Figure 1 - Sensor hardware and application

The code itself is written in C# and uses the FTDI D2XX Drivers NET wrapper. It provides a graphical user
interface for displaying the sensor data, and contains functions to implement the I2C protocol and GPIO
via MPSSE. These can  all be customised in order to tailor the application for different sensors and
different ways of presenting the measured data.

The main components, consisting of the proximity sensor, colour sensor and FTDI FT232H / FT2232H /
FT4232H are all available on development modules allowing the hardware to be prototyped very quickly
and easily.

This application note demonstrates the following principles:

       Using the FTDI D2XX Drivers with C# applications

       Using the FT232H / FT2232H / FT4232H MPSSE to implement I2C Master protocol

       Displaying the gathered data in a graphical user interface

       Using the AD3:7 pins as GPIO (useful for C232HM cable applications where only ADBUS  is
        accessible)

A big advantage of using MPSSE is that there is no firmware to develop, program and maintain. The
FT232H and FTx232H devices are hardware bridges supplied ready to use, with the MPSSE controlled
entirely by commands from the PC. This means that any changes in functionality of the end product (such
as to add features, read different registers in the I2C peripherals or add support for different I2C
peripherals) can all be implemented with a new release of the application program running on the PC.

                                                                              4
Product Page
Document Feedback                                           Copyright © Future Technology Devices International Limited

===== PAGE 5 =====
Application Note
                          AN_411 FTx232H MPSSE I2C Master Example in C#
                                                                                                                       Version 1.1

                                                        Document Reference No.: FT_001330   Clearance No.: FTDI#528

2 Hardware

2.1 Comparison of FT232H, FT2232H, FT4232H MPSSE Features

The software provided with this application note can be used on the FT232H, FT2232H and FT4232H.
These devices all have very similar MPSSE feature sets. The following table highlights some features and
differences relevant to the I2C implementation. Further details of the MPSSE commands and features can
be found in AN_108 and AN_135 and in the datasheet of the selected FTx232H device.

         Feature          FT232H  FT2232H  FT4232H               Notes
    Total Ports on device         1         2         4
   MPSSE capable ports         1         2         2
   Open Drain capability         Y        N       N
                                                                    Allows data to be stable on both clock
   Three Phase Clocking         Y         Y         Y      edges as required for I2C (see section
                                                                      6.2.1)
    GPIO per I2C port                                 5/8        5/8        5/0    No ACBUS on FT4232H
    (ADBUS/ACBUS)
                                                         EE indicates that the device starts in
   Default start up mode        EE        EE      UART    the mode selected in EEPROM e.g.
                                                          UART, FIFO
                             Table 1 - Features by device type

The device selection depends on the requirements of the application. If a single channel is required, the
FT232H’s open drain feature and the availability of up to 13 GPIO make  it a good choice.  If the
application requires an additional SPI interface, another I2C bus, or a UART port, then the FT2232H
allows this to be achieved with only one USB port. The FT4232H extends this by offering four ports
including up to two MPSSE interfaces.

In terms of throughput, the MPSSE on all three devices will give very similar performance. One thing to
consider however that is the USB protocol shares bandwidth across all devices connected. This applies to
all devices connected to the same USB host controller (most PCs have just one host controller an internal
hub), and so even devices on another USB port of the PC can take bandwidth on the bus. The Bulk USB
transfer mode used by the FTx232H devices is optimized for high throughput and error checking but does
not offer guaranteed latencies. If the application is sensitive to latencies then it should be tested under
the worst case conditions including OS latencies and USB bandwidth.

The MPSSE  is always a Master and cannot implement an I2C slave interface.  If USB to I2C slave
conversion is needed (e.g. to connect an MCU which has an I2C Master to a PC over USB) then the FTDI
FT200XD/FT201X devices would be suitable. In addition, the MPSSE does not support multi-master I2C
operation.

                                                                              5
Product Page
Document Feedback                                           Copyright © Future Technology Devices International Limited

===== PAGE 6 =====
Application Note
                          AN_411 FTx232H MPSSE I2C Master Example in C#
                                                                                                                       Version 1.1

                                                        Document Reference No.: FT_001330   Clearance No.: FTDI#528

2.2 Hardware Description

This section describes the hardware used for the example. The following diagram shows the schematic of
the hardware unit:

                                   Figure 2 – Schematics

2.2.1 FTDI Module

The demo allows the use of any of the three devices FT232H, FT2232H or FT4232H via the following
modules:

      FT232H      UM232H
      FT2232H      FT2232H-56 Mini Module (or FT2232H Mini Module)
      FT4232H      FT4232H-56 Mini Module (or FT4232H Mini Module)

These modules are designed by FTDI to allow easy evaluation of the devices and include all components
needed for the device including the USB connector and external EEPROM.

A standard 28-pin wide IC socket is provided for a UM232H. Note that connections must be made to the
VIO and 5V0 power pins before the module will be recognised by a PC.

A pair of dual-row header sockets  is provided for the FT2232H or FT4232H mini modules. For the
FT2232H and FT4232H, the 56Q version of the module was used as this has on-board jumpers to connect
VCC and VCCIO. The original module with 64-pin IC can be used in the same way provided the external
connections are made to power up the module (see the module datasheet for details)

                                                                              6
Product Page
Document Feedback                                           Copyright © Future Technology Devices International Limited

===== PAGE 7 =====
Application Note
                          AN_411 FTx232H MPSSE I2C Master Example in C#
                                                                                                                       Version 1.1

                                                        Document Reference No.: FT_001330   Clearance No.: FTDI#528

2.2.2 Power

A small regulator provides a stable 3v3 supply to the sensor modules derived from the USB 5V supply.
Whilst all of the FTDI modules used in this application note have 3v3 out connections which can provide a
small amount of current for external circuitry, an external LDO allows greater current capability which
may be required depending on the sensors used.

2.2.3 Proximity Sensor (VCNL4010)

The Proximity Click module from MikroElektronika was used which contains the VCNL4010 IC and
supporting components in an easy to use dual-in-line format. This sensor has a built-in IR emitter and
PIN photodiode which allow it to determine the proximity of an object within a 20cm range. It has built-in
processing which turns the amount of reflected light into a single 16-bit register value which represents
the distance of the object from the sensor. Additional registers allow configuration of the IR emitter
current, averaging settings and other parameters. The sensor has I2C address 0x13 (in 7-bit address
notation). More information can be found at the product page:

MikroElektronika Proximity click

2.2.4 Colour Sensor (TCS34725)

The colour sensor selected was the TCS34725 RGB colour sensor with IR filter and white LED, which is
available on a board from Adafruit. Like the proximity sensor, this board allows easy connection to the
small SMD package sensor and has  all of the supporting circuitry on-board. An on-board white LED
illuminates the object and the sensor measures the reflected light through an IR filter which blocks IR
components of the light to produce a more accurate reading. The white LED is controlled via a MOSFET
which is connected to a GPIO line on the MPSSE so that the bright light can be turned off until an object
is in close proximity. The sensor requires the object to be very close (in practice, the demo requires
within one or two centimetres) to get accurate readings. A real colour measuring application would use
the sensor under much more controlled conditions in order to get a more accurate reading, including the
ambient lighting conditions and calibration. The sensor has I2C address 0x29 (in 7-bit address notation).
More information can be found at the product page:

Adafruit Colour Sensor

2.2.5 GPIO

A GPIO line is used to control the white LED on the colour sensor module. A second line is used as an
activity indicator and turns on when the PC application configures the MPSSE. It toggles on each reading
to indicate that the demo is actively polling the sensors. Both GPIO lines use the ADBUS as this is
available on all three FTDI devices including the FT4232H and on cables such as C232HM which allow
connection to ADBUS only.

The ACBUS lines (not available on FT4232H or C232HM) are also available for GPIO purposes, where
AC7:0 provide up to 8 additional I/Os. It is therefore possible to have up to 13 GPIO lines in addition to
the I2C lines.

2.2.6 I2C

For the I2C itself, the lines AD2:0 are used. AD0 is the MPSSE’s clock out pin and is therefore connected
to the SCL line of the I2C bus. The MPSSE always generates the clock and as such is always the I2C
Master. It is not designed for multi-master operation.

For data, the MPSSE has two separate pins; ADBUS 1 is the Data Out pin and ADbus2 is the Data In pin.
Since the I2C bus uses a single bi-directional data line, the data in and data out lines are connected
together to allow data to be both written out and read in.

                                                                              7
Product Page
Document Feedback                                           Copyright © Future Technology Devices International Limited

===== PAGE 8 =====
Application Note
                          AN_411 FTx232H MPSSE I2C Master Example in C#
                                                                                                                       Version 1.1

                                                        Document Reference No.: FT_001330   Clearance No.: FTDI#528

For the FT232H, the I2C libraries in the software application set the pin states to be output for AD0
(clock) and AD1 (data out) and to be an input for AD2 (data in). The FT232H has a drive-only-zero
feature which allows any of AD7:0 and AC7:0 to be selected as open-drain.

For the FT2232H and FT4232H, the application includes additional GPIO writes to ADBUS which tristate
the AD1 Data Out pin when the line is not being driven, to simulate an open-drain pin.

2.2.7 EEPROM Settings

It  is recommended that the FTx232H device has a configuration EEPROM fitted. This allows several
settings to be optimised for the application. FTDI modules such as UM232H, C232HM, and FTx232H Mini
Modules have configuration EEPROMs fitted on-board. FTDI’s free FT_PROG software can be used to
change EEPROM settings over USB if required.

       For the FT232H and FT2232H, it is recommended to set the port to FIFO mode. Provided that the
     RD# and SI/WU# lines on ACBUS are de-asserted (pulled high) by the hardware then the 8
      ADBUS lines will begin as tristate when the device starts up. The device can enter MPSSE mode
       from either UART or FIFO but  if set for UART mode, the ADBUS lines would drive out their idle
      UART states until the I2C_ConfigureMPSSE function is called.

       Note that even in FIFO mode, some ACBUS lines are driven (e.g. TxE#) and so this should be
       considered when assigning ACBUS lines for GPIO purposes. Asynchronous FIFO pin assignments
       can be found in the device datasheet.

        It  is suggested that the VCP option be turned  off in the EEPROM so that the port  is not
        accidentally opened by the user in other COM port applications such as terminals. This ensures
       the port is available to be found by the sensor application.

       With an EEPROM, the device description string and serial number can also be changed to allow
       easy  identification  of  the  device.  For example,  the code  could open by  the  description
       “SensorDemo” and the EEPROM could be programmed with this description.

2.3 Prototype Hardware

The prototype hardware is shown in the figure below –

                               Figure 3 - Prototype Hardware

                                                                              8
Product Page
Document Feedback                                           Copyright © Future Technology Devices International Limited

===== PAGE 9 =====
Application Note
                          AN_411 FTx232H MPSSE I2C Master Example in C#
                                                                                                                       Version 1.1

                                                        Document Reference No.: FT_001330   Clearance No.: FTDI#528

3 Software

The software  is written in Visual Studio 2013 using C#. Later versions of Visual Studio should also
upgrade the project when opening.

The code for this application note is arranged in four particular areas. These are discussed further in the
following sections.

      Application code

       The main application  itself, which handles the user interface and  calls the functions which
        configure and read the sensors.

      Sensor Interface Functions

       These functions  utilise the generic I2C functions from the layer below to build up the I2C
        transactions needed to talk to the sensors.

      I2C Functions

       These functions form a generic I2C library. This allows them to be used for a variety of different
        applications. Their main purpose is to convert the I2C calls from the layers above into a series of
      MPSSE commands which are in turn sent using the calls to the D2xx driver.

      D2xx Driver and C# Wrapper

      When programming in C#, a wrapper is needed to allow the application to call the D2xx functions
         in the FTDI driver. FTDI also have a VB wrapper and a similar application for I2C is presented in
      AN_355. C++ applications can call the functions directly as shown in AN_255 (FT232H only) and
      AN_113.

3.1 Sample code package

This application note is provided with the source code for the sensor application. It is important to set the
#define at the top of the code to configure the code for the device type being used. In particular, this
defines whether the code uses open-drain capabilities (FT232H) or whether it simulates this with GPIO
writes (FT2232H/FT4232H) and whether it uses the upper byte of GPIO (FT232H and FT2232H only).

//#define FT232H
#define FT2232H
//#define FT4232H

The application when running displays the device type for which it was compiled at the bottom-right of
the window.

If the application is to be universal, an auto-detect can be added to select the device based on device
properties (e.g. device type and PID)

Note: This application is intended to demonstrate the MPSSE programming required to implement an I2C
Master interface. Some error checking and handling have been implemented where possible without
affecting readability of the MPSSE code. However, the code is not intended to reflect all best practices for
Windows application programming such as error handling and GUI implementation and C# programming
techniques.

Both the main application and the library functions are intended to be used as the basis for further
development and may require customisation to suit the particular application and I2C peripheral. The
functions are not intended as a ready-made library to suit  all applications without modification. This
flexibility to customise the code at lower levels allows fine-tuning of the I2C routines to suit the intended
application.
                                                                              9
Product Page
Document Feedback                                           Copyright © Future Technology Devices International Limited

===== PAGE 10 =====
Application Note
                          AN_411 FTx232H MPSSE I2C Master Example in C#
                                                                                                                       Version 1.1

                                                        Document Reference No.: FT_001330   Clearance No.: FTDI#528

4 Software - Application Code

This section briefly outlines the demo application. The application consists of the main window and has
handlers for each of the buttons.

The user interface has the following features:

      -   Status indication showing port Open, Ready, Closed, Running etc.
      -   Readout of the proximity value (0-65535)
      -   Readout of the Red, Green and Blue values (0-255)
      -   Horizontal Bar showing the relative proximity of an object to the sensor
      -   Coloured background behind the bar changes to indicate the colour of the object when in close
        proximity

                               Figure 4 - Application window

The handlers are described below for each button and event.

4.1 Form1_Load

On loading of the form, this handler sets the properties of the buttons and radio buttons to their initial
states.

4.2 Button1_Click (Initialise button)

When the user clicks the Initialise button, D2xx calls are used to determine how many FTDI devices are
connected.

The application then does an open by index to open the first port of the FTDI device connected. This will
be the single port of the FT232H and will be port A of the FT2232H and FT4232H.

The commented line above the OpenByIndex call shows an example of how to open a device by  its
description instead and would be a better solution for cases where multiple FTDI devices may be used on
the computer. Or a drop-down could be added to the GUI to allow the user to select the device. Note that
on multi-port devices, when opening by serial number or description, an A/B/C/D is appended to the
serial number or description to identify the corresponding port on the device.

Then, the I2C_ConfigureMPSSE function is called to set the device up for MPSSE operation.

On completion, the status LED on ACbus6 is illuminated by calling the I2C_SetGPIOValuesHigh function.

This is only implemented for FT232H and FT2232H as the FT4232H does not have a high byte.

                                                                            10
Product Page
Document Feedback                                           Copyright © Future Technology Devices International Limited

===== PAGE 11 =====
Application Note
                          AN_411 FTx232H MPSSE I2C Master Example in C#
                                                                                                                       Version 1.1

                                                        Document Reference No.: FT_001330   Clearance No.: FTDI#528

The functions ProximitySensorConfig and ColourSensorConfig are then called to set up the sensors over
I2C.

4.3 Button2_Click (Start button)

When the user clicks the start button, the application enters a loop where it takes a reading from the
proximity sensor. The call will return when the sensor has a reading available. This is then converted to a
string which is displayed in the main application window. The reading will sit at a value of up to 2500
under ambient conditions with no item in close proximity.

The code then carries out some very basic processing on the data whereby  if the reading is above a
typical idle level (i.e. if an object does appear to be within range) a Log10 is applied. This was found in
practice to present a more linear relationship between object distance and bar graph value. The Log10
isn’t applied below 2500 as it amplifies small changes in background level when no object is nearby and
makes the bar appear jittery.

If the proximity is greater than 10,000 (which correlates to the object being within a couple of cm of the
sensor) it is now considered that the colour sensor becomes usable.

      -  A GPIO write is used to turn on the white illumination LED controlled by ADbus3.
      -   The background colour of the application changes from a standard Windows ‘control light’ dialog